7MBY_S82R_134694162_uff_E=2047.93_0
 OpenBabel12012416113D

 93 96  0  0  0  0  0  0  0  0999 V2000
   98.5520   95.9740   94.4000 C   0  0  0  0  0
   99.6620   96.5310   93.6760 N   0  0  0  0  0
  100.7090   97.1840   94.2580 C   0  0  0  0  0
  100.8010   97.3140   95.4650 O   0  0  0  0  0
   99.6380   96.4510   92.6470 H   0  0  0  0  0
  101.7830   97.6860   93.3880 C   0  0  0  0  0
  102.0770   96.6140   92.4890 N   0  0  0  0  0
  103.2630   96.0260   92.4680 C   0  0  0  0  0
  104.2000   96.4920   93.1260 O   0  0  0  0  0
  101.3210   96.1570   91.9440 H   0  0  0  0  0
  103.4100   94.7410   91.7600 C   0  0  0  0  0
  102.6580   94.7230   90.4870 N   0  0  0  0  0
  103.2080   94.9840   89.2690 C   0  0  0  0  0
  102.5050   94.9350   88.2650 O   0  0  0  0  0
  101.6650   94.4510   90.5160 H   0  0  0  0  0
  104.6240   95.4190   89.1490 C   0  0  0  0  0
  105.5460   94.3560   88.7460 N   0  0  0  0  0
  106.7760   94.1840   89.3220 C   0  0  0  0  0
  107.2100   95.0020   90.1240 O   0  0  0  0  0
  105.2000   93.6070   88.1290 H   0  0  0  0  0
  107.6170   92.9670   89.0170 C   0  0  0  0  0
  107.0870   91.7770   89.6850 N   0  0  0  0  0
  106.1340   91.5680   89.3070 H   0  0  0  0  0
  107.0070   91.9400   90.7150 H   0  0  0  0  0
  109.0850   93.2170   89.4070 C   0  0  0  0  0
  110.0250   92.3980   88.5710 C   0  0  0  0  0
  111.0960   92.8610   88.2120 O   0  0  0  0  0
  109.6830   91.1360   88.2340 O   0  0  0  0  0
  109.4740   90.8960   87.3200 H   0  0  0  0  0
  104.6360   96.8580   88.5560 C   0  0  0  0  0
  103.8040   97.9320   89.1520 C   0  0  0  0  0
  102.6170   98.3670   88.5650 C   0  0  0  0  0
  102.0710   99.5690   88.9320 C   0  0  0  0  0
  102.6480  100.3290   89.9320 C   0  0  0  0  0
  103.7570   99.8290   90.6490 C   0  0  0  0  0
  104.3350   98.6260   90.2500 C   0  0  0  0  0
  102.1020  101.5340   90.1560 O   0  0  0  0  0
  101.5170  102.0700   91.6330 S   0  0  0  0  0
  100.8120  103.4260   91.5070 O   0  0  0  0  0
  100.2610  101.6480   90.8580 O   0  0  0  0  0
  100.7370  100.9590   92.6750 O   0  0  0  0  0
  101.2620  100.1290   92.5810 H   0  0  0  0  0
  102.9410   93.5320   92.5780 C   0  0  0  0  0
  103.6340   92.2990   91.9870 C   0  0  0  0  0
  105.1090   91.8350   92.9190 S   0  0  0  0  0
  104.6250   92.6500   94.4610 C   0  0  0  0  0
   98.7950   94.4600   94.6710 C   0  0  0  0  0
   99.1650   94.0420   96.0950 C   0  0  0  0  0
   98.2180   93.7480   97.0490 C   0  0  0  0  0
   98.8720   93.2740   98.1520 C   0  0  0  0  0
   96.8300   93.8300   96.9980 C   0  0  0  0  0
  100.1990   93.2650   97.9480 N   0  0  0  0  0
   98.1860   92.8550   99.2870 C   0  0  0  0  0
  100.4010   93.7390   96.6990 C   0  0  0  0  0
  100.9340   92.9350   98.6140 H   0  0  0  0  0
   96.7790   92.9400   99.2720 C   0  0  0  0  0
   96.1050   93.4270   98.1280 C   0  0  0  0  0
   97.2600   96.3480   93.6480 C   0  0  0  0  0
   96.4920   97.1530   94.1550 O   0  0  0  0  0
   97.0570   95.9170   92.3650 N   0  0  0  0  0
   97.7080   95.2410   91.9680 H   0  0  0  0  0
   95.9980   96.3550   91.4700 C   0  0  0  0  0
   96.4740   97.5140   90.5360 C   0  0  0  0  0
   96.0890   98.9340   91.0390 C   0  0  0  0  0
   94.3950   99.1120   91.6580 S   0  0  0  0  0
   94.6100  100.6930   92.5440 C   0  0  0  0  0
   95.6010   95.1470   90.6250 C   0  0  0  0  0
   94.4530   95.0950   90.2040 O   0  0  0  0  0
   96.4430   94.1170   90.3330 N   0  0  0  0  0
   96.0280   93.2990   89.8590 H   0  0  0  0  0
   97.8860   94.0860   90.5450 C   0  0  0  0  0
   98.5210   94.7760   89.3070 C   0  0  0  0  0
   99.4540   95.9280   89.5590 C   0  0  0  0  0
   99.8490   96.1910   90.6840 O   0  0  0  0  0
   99.8790   96.6580   88.5050 O   0  0  0  0  0
  100.5350   96.3170   87.8820 H   0  0  0  0  0
   98.3050   92.6470   90.7400 C   0  0  0  0  0
   99.4030   92.2680   90.3500 O   0  0  0  0  0
   97.4440   91.7680   91.3340 N   0  0  0  0  0
   96.5340   92.1060   91.6540 H   0  0  0  0  0
   97.7710   90.3620   91.4850 C   0  0  0  0  0
   97.8420   89.9950   92.9830 C   0  0  0  0  0
   99.2780   89.8970   93.4100 C   0  0  0  0  0
   99.8380   90.9470   94.1530 C   0  0  0  0  0
  101.1880   90.9210   94.4950 C   0  0  0  0  0
  101.9880   89.8430   94.1070 C   0  0  0  0  0
  101.4330   88.7830   93.3830 C   0  0  0  0  0
  100.0810   88.8060   93.0340 C   0  0  0  0  0
   96.8010   89.4720   90.7260 C   0  0  0  0  0
   97.1280   88.3250   90.4560 O   0  0  0  0  0
   95.5750   89.9150   90.3630 N   0  0  0  0  0
   94.9240   89.2830   89.8720 H   0  0  0  0  0
   95.2730   90.8760   90.5780 H   0  0  0  0  0
 58  1  1  0  0  0
  2  1  1  0  0  0
  1 47  1  0  0  0
  5  2  1  0  0  0
  2  3  1  0  0  0
  6  3  1  0  0  0
  3  4  2  0  0  0
  7  6  1  0  0  0
 10  7  1  0  0  0
  8  7  1  0  0  0
 11  8  1  0  0  0
  8  9  2  0  0  0
 12 11  1  0  0  0
 11 43  1  0  0  0
 13 12  1  0  0  0
 12 15  1  0  0  0
 14 13  2  0  0  0
 16 13  1  0  0  0
 30 16  1  0  0  0
 17 16  2  0  0  0
 20 17  1  0  0  0
 17 18  1  0  0  0
 21 18  1  0  0  0
 18 19  2  0  0  0
 21 25  1  0  0  0
 21 22  1  0  0  0
 23 22  1  0  0  0
 22 24  1  0  0  0
 26 25  1  0  0  0
 27 26  2  0  0  0
 28 26  1  0  0  0
 29 28  1  0  0  0
 30 31  1  0  0  0
 32 31  1  0  0  0
 31 36  2  0  0  0
 32 33  2  0  0  0
 33 34  1  0  0  0
 34 37  1  0  0  0
 34 35  2  0  0  0
 36 35  1  0  0  0
 37 38  1  0  0  0
 40 38  2  0  0  0
 39 38  2  0  0  0
 38 41  1  0  0  0
 42 41  1  0  0  0
 44 43  1  0  0  0
 44 45  1  0  0  0
 45 46  1  0  0  0
 47 48  1  0  0  0
 48 54  2  0  0  0
 48 49  1  0  0  0
 51 49  2  0  0  0
 49 50  1  0  0  0
 52 50  1  0  0  0
 50 53  2  0  0  0
 51 57  1  0  0  0
 54 52  1  0  0  0
 52 55  1  0  0  0
 56 53  1  0  0  0
 57 56  2  0  0  0
 60 58  1  0  0  0
 58 59  2  0  0  0
 62 60  1  0  0  0
 61 60  1  0  0  0
 63 62  1  0  0  0
 67 62  1  0  0  0
 63 64  1  0  0  0
 64 65  1  0  0  0
 65 66  1  0  0  0
 68 67  2  0  0  0
 69 67  1  0  0  0
 70 69  1  0  0  0
 69 71  1  0  0  0
 72 71  1  0  0  0
 71 77  1  0  0  0
 72 73  1  0  0  0
 75 73  1  0  0  0
 73 74  2  0  0  0
 76 75  1  0  0  0
 78 77  2  0  0  0
 77 79  1  0  0  0
 79 81  1  0  0  0
 79 80  1  0  0  0
 89 81  1  0  0  0
 81 82  1  0  0  0
 82 83  1  0  0  0
 88 83  1  0  0  0
 83 84  2  0  0  0
 84 85  1  0  0  0
 86 85  2  0  0  0
 87 86  1  0  0  0
 88 87  2  0  0  0
 91 89  1  0  0  0
 90 89  2  0  0  0
 92 91  1  0  0  0
 91 93  1  0  0  0
M  RAD 32   1   2   6   3  11   2  21   2  25   3  30   3  32   2  33   2  35   2  36   2  43   3  44   3  46   4  47   3  51   2  53   2  54   2  56   2  57   2  62   2  63   3  64   3  66   4  71   2  72   3  81   2  82   3  84   2  85   2  86   2  87   2  88   2
M  END
>  <Vina Binding Affinity>
-7.5

$$$$
